@<TRIPOS>MOLECULE
*****
 61 66 0 0 0
SMALL
GASTEIGER

@<TRIPOS>ATOM
      1 C           0.0000    0.0000    0.0000 C.3     1  UNL1        0.0307
      2 C           0.0000    0.0000    0.0000 C.ar    1  UNL1       -0.0242
      3 C           0.0000    0.0000    0.0000 C.ar    1  UNL1        0.0160
      4 C           0.0000    0.0000    0.0000 C.ar    1  UNL1        0.0970
      5 C           0.0000    0.0000    0.0000 C.ar    1  UNL1        0.0786
      6 C           0.0000    0.0000    0.0000 C.ar    1  UNL1        0.0142
      7 C           0.0000    0.0000    0.0000 C.ar    1  UNL1       -0.0243
      8 C           0.0000    0.0000    0.0000 C.3     1  UNL1        0.0307
      9 N           0.0000    0.0000    0.0000 N.ar    1  UNL1       -0.3077
     10 C           0.0000    0.0000    0.0000 C.ar    1  UNL1        0.1711
     11 N           0.0000    0.0000    0.0000 N.ar    1  UNL1       -0.1732
     12 C           0.0000    0.0000    0.0000 C.ar    1  UNL1        0.3505
     13 O           0.0000    0.0000    0.0000 O.2     1  UNL1       -0.2446
     14 N           0.0000    0.0000    0.0000 N.ar    1  UNL1       -0.2717
     15 H           0.0000    0.0000    0.0000 H       1  UNL1        0.1735
     16 C           0.0000    0.0000    0.0000 C.ar    1  UNL1        0.2817
     17 O           0.0000    0.0000    0.0000 O.2     1  UNL1       -0.2653
     18 C           0.0000    0.0000    0.0000 C.ar    1  UNL1        0.1713
     19 N           0.0000    0.0000    0.0000 N.ar    1  UNL1       -0.2361
     20 C           0.0000    0.0000    0.0000 C.3     1  UNL1        0.1359
     21 C           0.0000    0.0000    0.0000 C.3     1  UNL1        0.1535
     22 H           0.0000    0.0000    0.0000 H       1  UNL1        0.0682
     23 C           0.0000    0.0000    0.0000 C.3     1  UNL1        0.1570
     24 H           0.0000    0.0000    0.0000 H       1  UNL1        0.0684
     25 C           0.0000    0.0000    0.0000 C.3     1  UNL1        0.1604
     26 H           0.0000    0.0000    0.0000 H       1  UNL1        0.0687
     27 C           0.0000    0.0000    0.0000 C.3     1  UNL1        0.1775
     28 O           0.0000    0.0000    0.0000 O.3     1  UNL1       -0.3115
     29 P           0.0000    0.0000    0.0000 P.3     1  UNL1        0.2189
     30 O           0.0000    0.0000    0.0000 O.2     1  UNL1       -0.5170
     31 O           0.0000    0.0000    0.0000 O.3     1  UNL1       -0.4371
     32 O           0.0000    0.0000    0.0000 O.3     1  UNL1       -0.2703
     33 P           0.0000    0.0000    0.0000 P.3     1  UNL1        0.2189
     34 O           0.0000    0.0000    0.0000 O.2     1  UNL1       -0.5170
     35 O           0.0000    0.0000    0.0000 O.3     1  UNL1       -0.4371
     36 O           0.0000    0.0000    0.0000 O.3     1  UNL1       -0.3116
     37 C           0.0000    0.0000    0.0000 C.3     1  UNL1        0.1743
     38 C           0.0000    0.0000    0.0000 C.3     1  UNL1        0.1282
     39 H           0.0000    0.0000    0.0000 H       1  UNL1        0.0656
     40 C           0.0000    0.0000    0.0000 C.3     1  UNL1        0.1559
     41 H           0.0000    0.0000    0.0000 H       1  UNL1        0.0684
     42 C           0.0000    0.0000    0.0000 C.3     1  UNL1        0.1701
     43 H           0.0000    0.0000    0.0000 H       1  UNL1        0.0702
     44 C           0.0000    0.0000    0.0000 C.3     1  UNL1        0.1707
     45 H           0.0000    0.0000    0.0000 H       1  UNL1        0.0868
     46 O           0.0000    0.0000    0.0000 O.3     1  UNL1       -0.3446
     47 N           0.0000    0.0000    0.0000 N.ar    1  UNL1       -0.2764
     48 C           0.0000    0.0000    0.0000 C.ar    1  UNL1        0.1812
     49 N           0.0000    0.0000    0.0000 N.ar    1  UNL1       -0.2193
     50 C           0.0000    0.0000    0.0000 C.ar    1  UNL1        0.1518
     51 C           0.0000    0.0000    0.0000 C.ar    1  UNL1        0.1688
     52 N           0.0000    0.0000    0.0000 N.ar    1  UNL1       -0.2048
     53 C           0.0000    0.0000    0.0000 C.ar    1  UNL1        0.2016
     54 N           0.0000    0.0000    0.0000 N.ar    1  UNL1       -0.2040
     55 C           0.0000    0.0000    0.0000 C.ar    1  UNL1        0.1919
     56 N           0.0000    0.0000    0.0000 N.pl3   1  UNL1       -0.1054
     57 O           0.0000    0.0000    0.0000 O.3     1  UNL1       -0.2235
     58 O           0.0000    0.0000    0.0000 O.3     1  UNL1       -0.2254
     59 O           0.0000    0.0000    0.0000 O.3     1  UNL1       -0.2250
     60 O           0.0000    0.0000    0.0000 O.3     1  UNL1       -0.2253
     61 O           0.0000    0.0000    0.0000 O.3     1  UNL1       -0.2256
@<TRIPOS>BOND
     1     1     2    1
     2     2     3   ar
     3     3     4   ar
     4     4     5   ar
     5     5     6   ar
     6     6     7   ar
     7     2     7   ar
     8     7     8    1
     9     5     9   ar
    10     9    10   ar
    11    10    11   ar
    12    11    12   ar
    13    12    13    2
    14    12    14   ar
    15    14    15    1
    16    14    16   ar
    17    16    17    2
    18    16    18   ar
    19    10    18   ar
    20    18    19   ar
    21     4    19   ar
    22     9    20    1
    23    20    21    1
    24    21    22    1
    25    21    23    1
    26    23    24    1
    27    23    25    1
    28    25    26    1
    29    25    27    1
    30    27    28    1
    31    28    29    1
    32    29    30    2
    33    29    31    1
    34    29    32    1
    35    32    33    1
    36    33    34    2
    37    33    35    1
    38    33    36    1
    39    36    37    1
    40    37    38    1
    41    38    39    1
    42    38    40    1
    43    40    41    1
    44    40    42    1
    45    42    43    1
    46    42    44    1
    47    44    45    1
    48    44    46    1
    49    38    46    1
    50    44    47    1
    51    47    48   ar
    52    48    49   ar
    53    49    50   ar
    54    50    51   ar
    55    47    51   ar
    56    51    52   ar
    57    52    53   ar
    58    53    54   ar
    59    54    55   ar
    60    50    55   ar
    61    55    56    1
    62    42    57    1
    63    40    58    1
    64    25    59    1
    65    23    60    1
    66    21    61    1
