@<TRIPOS>MOLECULE
*****
 34 36 0 0 0
SMALL
GASTEIGER

@<TRIPOS>ATOM
      1 C           0.0000    0.0000    0.0000 C.3     1  UNL1        0.0307
      2 C           0.0000    0.0000    0.0000 C.ar    1  UNL1       -0.0242
      3 C           0.0000    0.0000    0.0000 C.ar    1  UNL1        0.0160
      4 C           0.0000    0.0000    0.0000 C.ar    1  UNL1        0.0970
      5 C           0.0000    0.0000    0.0000 C.ar    1  UNL1        0.0786
      6 C           0.0000    0.0000    0.0000 C.ar    1  UNL1        0.0142
      7 C           0.0000    0.0000    0.0000 C.ar    1  UNL1       -0.0243
      8 C           0.0000    0.0000    0.0000 C.3     1  UNL1        0.0307
      9 N           0.0000    0.0000    0.0000 N.ar    1  UNL1       -0.3077
     10 C           0.0000    0.0000    0.0000 C.ar    1  UNL1        0.1712
     11 N           0.0000    0.0000    0.0000 N.ar    1  UNL1       -0.1716
     12 C           0.0000    0.0000    0.0000 C.ar    1  UNL1        0.3728
     13 O           0.0000    0.0000    0.0000 O.2     1  UNL1       -0.2425
     14 N           0.0000    0.0000    0.0000 N.ar    1  UNL1       -0.1503
     15 C           0.0000    0.0000    0.0000 C.ar    1  UNL1        0.3037
     16 C           0.0000    0.0000    0.0000 C.ar    1  UNL1        0.1732
     17 N           0.0000    0.0000    0.0000 N.ar    1  UNL1       -0.2361
     18 O           0.0000    0.0000    0.0000 O.3     1  UNL1       -0.2633
     19 C           0.0000    0.0000    0.0000 C.3     1  UNL1        0.1359
     20 C           0.0000    0.0000    0.0000 C.3     1  UNL1        0.1535
     21 H           0.0000    0.0000    0.0000 H       1  UNL1        0.0682
     22 C           0.0000    0.0000    0.0000 C.3     1  UNL1        0.1570
     23 H           0.0000    0.0000    0.0000 H       1  UNL1        0.0684
     24 C           0.0000    0.0000    0.0000 C.3     1  UNL1        0.1605
     25 H           0.0000    0.0000    0.0000 H       1  UNL1        0.0687
     26 C           0.0000    0.0000    0.0000 C.3     1  UNL1        0.1821
     27 O           0.0000    0.0000    0.0000 O.3     1  UNL1       -0.2679
     28 P           0.0000    0.0000    0.0000 P.3     1  UNL1        0.5327
     29 O           0.0000    0.0000    0.0000 O.2     1  UNL1       -0.2224
     30 O           0.0000    0.0000    0.0000 O.3     1  UNL1       -0.1145
     31 O           0.0000    0.0000    0.0000 O.3     1  UNL1       -0.1145
     32 O           0.0000    0.0000    0.0000 O.3     1  UNL1       -0.2250
     33 O           0.0000    0.0000    0.0000 O.3     1  UNL1       -0.2253
     34 O           0.0000    0.0000    0.0000 O.3     1  UNL1       -0.2256
@<TRIPOS>BOND
     1     1     2    1
     2     2     3   ar
     3     3     4   ar
     4     4     5   ar
     5     5     6   ar
     6     6     7   ar
     7     2     7   ar
     8     7     8    1
     9     5     9   ar
    10     9    10   ar
    11    10    11   ar
    12    11    12   ar
    13    12    13    2
    14    12    14   ar
    15    14    15   ar
    16    15    16   ar
    17    10    16   ar
    18    16    17   ar
    19     4    17   ar
    20    15    18    1
    21     9    19    1
    22    19    20    1
    23    20    21    1
    24    20    22    1
    25    22    23    1
    26    22    24    1
    27    24    25    1
    28    24    26    1
    29    26    27    1
    30    27    28    1
    31    28    29    2
    32    28    30    1
    33    28    31    1
    34    24    32    1
    35    22    33    1
    36    20    34    1
